
**** 05/30/19 17:23:59 ******* PSpice Lite (April 2011) ******* ID# 10813 ****

 ** Profile: "SCHEMATIC1-teste2"  [ C:\Cadence\circ-PSpiceFiles\SCHEMATIC1\teste2.sim ] 


 ****     CIRCUIT DESCRIPTION


******************************************************************************




** Creating circuit file "teste2.cir" 
** WARNING: THIS AUTOMATICALLY GENERATED FILE MAY BE OVERWRITTEN BY SUBSEQUENT SIMULATIONS

*Libraries: 
* Profile Libraries :
* Local Libraries :
* From [PSPICE NETLIST] section of C:\Cadence\SPB_16.5\tools\PSpice\PSpice.ini file:
.lib "nomd.lib" 

*Analysis directives: 
.TRAN  0 10s 0 
.PROBE V(alias(*)) I(alias(*)) W(alias(*)) D(alias(*)) NOISE(alias(*)) 
.INC "..\SCHEMATIC1.net" 



**** INCLUDING SCHEMATIC1.net ****
* source CIRC
E_U1         N14790 0 VALUE {LIMIT(V(0,N14773)*1E6,-15V,+15V)} _U1 0 N14773 1G

E_U2         N14825 0 VALUE {LIMIT(V(0,N14808)*1E6,-15V,+15V)} _U2 0 N14808 1G

E_U3         N15551 0 VALUE {LIMIT(V(0,N15214)*1E6,-15V,+15V)} _U3 0 N15214 1G

E_U4         N15252 0 VALUE {LIMIT(V(0,N15235)*1E6,-15V,+15V)} _U4 0 N15235 1G

E_U5         N15294 0 VALUE {LIMIT(V(0,N15277)*1E6,-15V,+15V)} _U5 0 N15277 1G

E_U6         N15652 0 VALUE {LIMIT(V(0,N15457)*1E6,-15V,+15V)} _U6 0 N15457 1G

E_U7         N15687 0 VALUE {LIMIT(V(0,N15670)*1E6,-15V,+15V)} _U7 0 N15670 1G

R_R1         N14773 N14790  1 TC=0,0 
R_R2         N14808 N14825  1 TC=0,0 
R_R3         N15214 N15551  1 TC=0,0 
R_R4         N15235 N15252  1 TC=0,0 
R_R5         N15277 N15294  1 TC=0,0 
E_U8         N15387 0 VALUE {LIMIT(V(0,N15370)*1E6,-15V,+15V)} _U8 0 N15370 1G

R_R6         N15370 N15387  1k TC=0,0 
R_R7         N15294 N15370  1 TC=0,0 
R_R8         N15670 N15652  1 TC=0,0 
R_R9         N15687 N15670  1 TC=0,0 
C_C1         N16219 N14773  1  TC=0,0 
C_C2         N14790 N14808  0.1  TC=0,0 
C_C3         N15687 N15214  0.1  TC=0,0 
C_C4         N15687 N15235  1  TC=0,0 
C_C5         N15252 N15277  0.01  TC=0,0 
R_R10         N15457 N15652  1k TC=0,0 
R_R11         N15551 N15457  1k TC=0,0 
R_R12         N15387 N15457  1 TC=0,0 
R_R13         N14825 N15457  1k TC=0,0 
R_R14         N15457 N16219  1k TC=0,0 
V_V1         N16219 0 15

**** RESUMING teste2.cir ****
.END

**** 05/30/19 17:23:59 ******* PSpice Lite (April 2011) ******* ID# 10813 ****

 ** Profile: "SCHEMATIC1-teste2"  [ C:\Cadence\circ-PSpiceFiles\SCHEMATIC1\teste2.sim ] 


 ****     INITIAL TRANSIENT SOLUTION       TEMPERATURE =   27.000 DEG C


******************************************************************************



 NODE   VOLTAGE     NODE   VOLTAGE     NODE   VOLTAGE     NODE   VOLTAGE


(N14773)    0.0000 (N14790)    0.0000 (N14808)    0.0000 (N14825)    0.0000     

(N15214)    0.0000 (N15235)    0.0000 (N15252)    0.0000 (N15277)    0.0000     

(N15294)    0.0000 (N15370)    0.0000 (N15387)    0.0000 (N15457) 14.99E-06     

(N15551)    0.0000 (N15652)  -14.9850 (N15670)-14.98E-06 (N15687)   14.9850     

(N16219)   15.0000 




    VOLTAGE SOURCE CURRENTS
    NAME         CURRENT

    V_V1        -1.500E-02

    TOTAL POWER DISSIPATION   2.25E-01  WATTS

Reducing minimum delta to make the circuit converge.
Reducing minimum delta to make the circuit converge.
Reducing minimum delta to make the circuit converge.
Reducing minimum delta to make the circuit converge.
Reducing minimum delta to make the circuit converge.
Reducing minimum delta to make the circuit converge.
Reducing minimum delta to make the circuit converge.
Reducing minimum delta to make the circuit converge.

ERROR(ORPSIM-15138): Convergence problem in transient analysis at Time =  2.000E-03.
         Time step =  111.0E-21, minimum allowable step size =  1.000E-18

  These voltages failed to converge:

    V(N15294)                 =   -1.863mV  \   -6.939pV
    V(N15652)                 =   -1.920KV  \    -14.99V
    V(N15457)                 =    1.920mV  \    14.99uV
    V(N15387)                 =     1.907V  \   -56.60fV
    V(N15370)                 =   -1.907uV  \ 56.60e-21V

  These supply currents failed to converge:

    I(E_U2)                   =    1.920uA  \    14.99nA
    I(E_U3)                   =    1.915uA  \    14.99nA
    I(E_U4)                   =   971.52KA  \ 34.69e-18A
    I(E_U5)                   =    3.723mA  \    13.88pA
    I(E_U6)                   =    1.922KA  \     15.00A
    I(E_U7)                   =    4.096KA  \    -14.99A
    I(E_U8)                   =    -1.907A  \    14.99uA
    I(V_V1)                   =    1.920uA  \   -15.00mA

  These devices failed to converge:
    E_U6      



  Last node voltages tried were:

 NODE   VOLTAGE     NODE   VOLTAGE     NODE   VOLTAGE     NODE   VOLTAGE


(N14773)    0.0000 (N14790)    0.0000 (N14808)    0.0000 (N14825)    0.0000     

(N15214)-5.329E-15 (N15235)-1.776E-15 (N15252) 1.776E-09 (N15277) 1.863E-09     

(N15294)    -.0019 (N15370)-1.907E-06 (N15387)    1.9073 (N15457)     .0019     

(N15551) 5.329E-09 (N15652)-1920.4000 (N15670)-14.99E-06 (N15687)   14.9850     

(N16219)   15.0000 


**** Interrupt ****
